
     RDKit          3D

  9  9  0  0  0  0  0  0  0  0999 V2000
    0.6846    0.7417   -0.2774 C   0  0  0  0  0  0  0  0  0  0  0  0
   -0.7305    0.6927   -0.2905 C   0  0  0  0  0  0  0  0  0  0  0  0
   -1.0721   -0.5906    0.0678 C   0  0  0  0  0  0  0  0  0  0  0  0
    0.0426   -1.3312    0.2996 O   0  0  0  0  0  0  0  0  0  0  0  0
    1.1075   -0.5151    0.0880 C   0  0  0  0  0  0  0  0  0  0  0  0
    1.3189    1.5865   -0.5055 H   0  0  0  0  0  0  0  0  0  0  0  0
   -1.4174    1.4917   -0.5308 H   0  0  0  0  0  0  0  0  0  0  0  0
   -2.0121   -1.1087    0.1972 H   0  0  0  0  0  0  0  0  0  0  0  0
    2.0785   -0.9670    0.2350 H   0  0  0  0  0  0  0  0  0  0  0  0
  1  2  1  0
  2  3  2  0
  3  4  1  0
  4  5  1  0
  5  1  2  0
  1  6  1  0
  2  7  1  0
  3  8  1  0
  5  9  1  0
M  END
