
     RDKit          3D

  9  9  0  0  0  0  0  0  0  0999 V2000
   -0.7271    0.7208    0.0110 C   0  0  0  0  0  0  0  0  0  0  0  0
    0.6755    0.7704   -0.1762 C   0  0  0  0  0  0  0  0  0  0  0  0
    1.1001   -0.5366   -0.2344 C   0  0  0  0  0  0  0  0  0  0  0  0
    0.0479   -1.3839   -0.0950 O   0  0  0  0  0  0  0  0  0  0  0  0
   -1.0604   -0.6130    0.0539 C   0  0  0  0  0  0  0  0  0  0  0  0
   -1.4115    1.5522    0.1033 H   0  0  0  0  0  0  0  0  0  0  0  0
    1.3008    1.6481   -0.2586 H   0  0  0  0  0  0  0  0  0  0  0  0
    2.0647   -1.0073   -0.3638 H   0  0  0  0  0  0  0  0  0  0  0  0
   -1.9901   -1.1507    0.1773 H   0  0  0  0  0  0  0  0  0  0  0  0
  1  2  1  0
  2  3  2  0
  3  4  1  0
  4  5  1  0
  5  1  2  0
  1  6  1  0
  2  7  1  0
  3  8  1  0
  5  9  1  0
M  END
