
     RDKit          3D

  9  9  0  0  0  0  0  0  0  0999 V2000
   -0.7091    0.7429   -0.3270 C   0  0  0  0  0  0  0  0  0  0  0  0
    0.7065    0.7470   -0.2968 C   0  0  0  0  0  0  0  0  0  0  0  0
    1.0912   -0.5711   -0.2157 C   0  0  0  0  0  0  0  0  0  0  0  0
    0.0024   -1.3827   -0.1942 O   0  0  0  0  0  0  0  0  0  0  0  0
   -1.0893   -0.5774   -0.2622 C   0  0  0  0  0  0  0  0  0  0  0  0
   -1.3715    1.5947   -0.3884 H   0  0  0  0  0  0  0  0  0  0  0  0
    1.3659    1.6027   -0.3299 H   0  0  0  0  0  0  0  0  0  0  0  0
    2.0480   -1.0721   -0.1674 H   0  0  0  0  0  0  0  0  0  0  0  0
   -2.0443   -1.0840   -0.2548 H   0  0  0  0  0  0  0  0  0  0  0  0
  1  2  1  0
  2  3  2  0
  3  4  1  0
  4  5  1  0
  5  1  2  0
  1  6  1  0
  2  7  1  0
  3  8  1  0
  5  9  1  0
M  END
