
     RDKit          3D

  4  3  0  0  0  0  0  0  0  0999 V2000
   -1.1426   -0.6220   -0.0765 F   0  0  0  0  0  0  0  0  0  0  0  0
   -0.0042    0.0365    0.2043 C   0  0  0  0  0  3  0  0  0  0  0  0
    1.2053   -0.4928   -0.0514 F   0  0  0  0  0  0  0  0  0  0  0  0
   -0.0585    1.0783   -0.0765 H   0  0  0  0  0  0  0  0  0  0  0  0
  1  2  1  0
  2  3  1  0
  2  4  1  0
M  RAD  1   2   2
M  END
